.option compat
.lib model

.global 0 

.param XWM=0.000003 XLM=0.000001 XWin=0.000003 XLin=0.000000360 XWb=0.000002 XLb=0.000000180


C01 vout 0 5p

m1 n1 n1 vdd vdd CMOSP w='XWM' l='XLM'

m2 vout n1 vdd vdd CMOSP w='XWM' l='XLM'

m3 n1 vinp n2 n2 CMOSN w='XWin' l='XLin'
m4 vout vinn n2 n2 CMOSN w='Xwin' l='XLin'  

m5 n2 vb 0 0 CMOSN w='XWb' l='XLb'


V0 vinn 0 ac 1 dc 0.7
V1 vinp 0 ac 1 dc 0.7
V2 vdd 0 dc 1.8
V3 vb 0 dc 0.7

.ac dec 10 100 1G data=list

.data list XWM XLM XWin XLin XWb XLb
+ 2.3951e-05 7.779e-06 4.3816e-05 6.2448e-06 1.0878e-05 6.5204e-06 
+ 2.7948e-05 8.6123e-06 2.4518e-05 9.2105e-06 1.0878e-05 6.5204e-06 
+ 1.0548e-05 7.6146e-06 4.4344e-05 5.149e-06 2.4e-07 8.1432e-06 
+ 3.5677e-05 8.474e-06 2.4518e-05 6.8332e-06 1.0878e-05 6.5204e-06 
+ 3.3844e-05 1.8e-07 2.4e-07 5.2536e-06 2.4e-07 3.9181e-06 
+ 5.6027e-05 7.5474e-06 4.9054e-05 2.4731e-06 5.0282e-06 3.9566e-06 
+ 3.2434e-05 1.0021e-05 2.4518e-05 6.2448e-06 1.0878e-05 7.4193e-06 
+ 2.1491e-05 8.6123e-06 4.6043e-05 9.2105e-06 1.4451e-05 8.0047e-06 
+ 2.7948e-05 7.779e-06 2.5005e-05 6.2448e-06 1.0878e-05 6.5204e-06 
+ 2.3951e-05 1.3219e-06 4.6394e-05 6.4175e-06 5.0807e-06 9.1009e-06 
+ 1.9181e-05 1.1985e-06 1.9025e-05 6.1279e-06 1.2246e-05 6.2971e-06 
+ 2.4e-07 1.8e-07 2.4518e-05 1.8e-07 2.4e-07 1.8e-07 
+ 2.022e-05 1.8e-07 2.4e-07 9.2105e-06 1.0878e-05 6.5204e-06 
+ 2.4e-07 1.8e-07 2.4e-07 1.8e-07 2.4e-07 1.8e-07 
+ 2.4e-07 1.8e-07 2.4e-07 1.8e-07 2.4e-07 1.8e-07 
+ 2.4e-07 1.8e-07 2.4e-07 1.8e-07 2.4e-07 1.8e-07 
+ 2.4e-07 1.8e-07 2.4e-07 1.8e-07 2.4e-07 1.8e-07 
+ 2.4e-07 1.8e-07 2.4e-07 1.8e-07 2.4e-07 1.8e-07 
+ 2.4e-07 1.8e-07 2.4e-07 1.8e-07 2.4e-07 1.8e-07 
+ 2.4e-07 1.8e-07 2.4e-07 1.8e-07 2.4e-07 1.8e-07 
+ 2.4e-07 1.8e-07 2.4e-07 1.8e-07 2.4e-07 1.8e-07 
+ 2.4e-07 1.8e-07 2.4e-07 1.8e-07 2.4e-07 1.8e-07 
+ 2.4e-07 1.8e-07 2.4e-07 1.8e-07 2.4e-07 1.8e-07 
+ 2.4e-07 1.8e-07 2.4e-07 1.8e-07 2.4e-07 1.8e-07 
+ 2.4e-07 1.8e-07 2.4e-07 1.8e-07 2.4e-07 1.8e-07 
.enddata

.printfile ac v(vout) file=acResult
