
.option compat
.lib model

.global 0 
.param W1=3u L1=1u Win=3u Lin=360n Wb=2u Lb=180n

m1 n1 n1 vdd vdd CMOSP w='WM' l='LM'
m2 vout n1 vdd vdd CMOSP w='WM' l='LM'

m3 n1 vinp n2 n2 CMOSN w='Win' l='Lin'
m4 vout vinn n2 n2 CMOSN w='Win' l='Lin'  # D_G_S_S

m5 n2 vb 0 0 CMOSN w='Wb' l='Lb'

C1 vout 0 5f

V0 vdd 0 dc 1.8
V1 vin 0 pulse( 0 1.8 0.49u 0.02u)

.tran 1n 1u

.printfile tran v(vin) v(vout) file=tranResult
