
.option compat
.lib model

.global 0 
.param XWM=3u XLM=1u XWin=3u XLin=360n XWb=2u XLb=180n

m1 n1 n1 vdd vdd CMOSP w='XWM' l='XLM'
m2 vout n1 vdd vdd CMOSP w='XWM' l='XLM'

m3 n1 vinp n2 n2 CMOSN w='XWin' l='XLin'
m4 vout vinn n2 n2 CMOSN w='XWin' l='XLin' 

m5 n2 vb 0 0 CMOSN w='XWb' l='XLb'

C1 vout 0 5f

V0 vdd 0 dc 1.8
V1 vin 0 pulse( 0 1.8 0.49u 0.02u)

.tran 1n 1u

.printfile tran v(vin) v(vout) file=tranResult
